MT3D is a family of finite-difference groundwater mass transport modeling software, often used with MODFLOW. The first generation, MT3D, was developed by Chunmiao Zheng in 1990, and most recently released by the U.S. Geological Survey with MT3D-USGS.
